<?xml version="1.0" encoding="UTF-8"?>

<!-- generated on 2025-11-17 21:21:38 by Eclipse SUMO duarouter Version 1.24.0
<duarouterConfiguration xmlns:xsi="http://www.w3.org/2001/XMLSchema-instance" xsi:noNamespaceSchemaLocation="http://sumo.dlr.de/xsd/duarouterConfiguration.xsd">

    <input>
        <net-file value="osm.net.xml"/>
        <route-files value="osm.passenger.trips.xml"/>
    </input>

    <output>
        <output-file value="osm.rou.xml"/>
    </output>

</duarouterConfiguration>
-->

<routes xmlns:xsi="http://www.w3.org/2001/XMLSchema-instance" xsi:noNamespaceSchemaLocation="http://sumo.dlr.de/xsd/routes_file.xsd">
    <vType id="veh_passenger" vClass="passenger"/>
    <vehicle id="veh0" type="veh_passenger" depart="0.00" departLane="best" departSpeed="max">
        <route edges="171934808#0 152445636#0 -152445636#2 928805374#0 4824568#0 4824568#2 1413212083 130764244"/>
    </vehicle>
    <vehicle id="veh1" type="veh_passenger" depart="29.28" departLane="best" departSpeed="max">
        <route edges="314789426 1267352664 314789428#0 4824557#0 -152445636#2 -171934808#4"/>
    </vehicle>
    <vehicle id="veh2" type="veh_passenger" depart="58.55" departLane="best" departSpeed="max">
        <route edges="153897364#0 314789414 66227390#0 209114515#0 265499418 84657864#0 314789430#0"/>
    </vehicle>
    <vehicle id="veh3" type="veh_passenger" depart="87.83" departLane="best">
        <route edges="4221194#1 4726265#0 265499418 4877725 314789433#2"/>
    </vehicle>
    <vehicle id="veh4" type="veh_passenger" depart="117.10" departLane="best" departSpeed="max">
        <route edges="153897364#0 314789414 66227390#0 209114515#0 265499418 314789436#0"/>
    </vehicle>
    <vehicle id="veh5" type="veh_passenger" depart="146.38" departLane="best">
        <route edges="314789414 66227390#0 450074239 4824557#0 -152445636#2 -171934808#4 171934808#0 -84657872#4 4828723#0 1257751783#0"/>
    </vehicle>
    <vehicle id="veh6" type="veh_passenger" depart="175.66" departLane="best" departSpeed="max">
        <route edges="130528361 -1298038631 -928805374#4 152445636#0 4726265#0 450074238 4726271#0 1081333389 4824695#0 -4824702"/>
    </vehicle>
    <vehicle id="veh7" type="veh_passenger" depart="204.93" departLane="best" departSpeed="max">
        <route edges="314789426 1267352664 314789428#0 265499418 4877725 314789433#2"/>
    </vehicle>
    <vehicle id="veh8" type="veh_passenger" depart="234.21" departLane="best">
        <route edges="4824557#0 -152445636#2 -171934808#4"/>
    </vehicle>
    <vehicle id="veh9" type="veh_passenger" depart="263.48" departLane="best">
        <route edges="1267352664 314789428#0 265499418 4877725 314789433#2 314789433#4 4726271#0 1081333389 132964155#0"/>
    </vehicle>
    <vehicle id="veh10" type="veh_passenger" depart="292.76" departLane="best" departSpeed="max">
        <route edges="4221194#0 4221194#1 4726265#0 209114514#0 335993897 265499402#0 265499402#4"/>
    </vehicle>
    <vehicle id="veh11" type="veh_passenger" depart="322.03" departLane="best" departSpeed="max">
        <route edges="314789426 1267352664 314789428#0 4824557#0 -152445636#2 928805374#0 1298038631"/>
    </vehicle>
    <vehicle id="veh12" type="veh_passenger" depart="351.31" departLane="best" departSpeed="max">
        <route edges="171934808#0 -84657872#4 4828723#0 4828723#2 84657870#0 84657870#1 84657869#2"/>
    </vehicle>
    <vehicle id="veh13" type="veh_passenger" depart="380.59" departLane="best" departSpeed="max">
        <route edges="4834297#0 -1298038631 -928805374#4 152445636#0 4726265#0 450074238 4726271#0 1081333389 4824695#0 4824695#1"/>
    </vehicle>
    <vehicle id="veh14" type="veh_passenger" depart="409.86" departLane="best" departSpeed="max">
        <route edges="153897364#0 314789414 66227390#0 450074239 4824557#0 -152445636#2 -171934808#4"/>
    </vehicle>
    <vehicle id="veh15" type="veh_passenger" depart="439.14" departLane="best" departSpeed="max">
        <route edges="153897364#0 314789414 66227390#0 450074239 4824557#0 -152445636#2 -171934808#4 171934808#0 -84657872#4 4828723#0 4828723#2 84657870#0"/>
    </vehicle>
    <vehicle id="veh16" type="veh_passenger" depart="468.41" departLane="best">
        <route edges="450074238 4726271#0 1081333389 132964155#0 314789433#4 27557419#0 335993897 265499402#0 265499402#4"/>
    </vehicle>
    <vehicle id="veh17" type="veh_passenger" depart="497.69" departLane="best" departSpeed="max">
        <route edges="171934808#0 152445636#0 4726265#0 450074238 4726271#0 138347489#0"/>
    </vehicle>
    <vehicle id="veh18" type="veh_passenger" depart="526.97" departLane="best">
        <route edges="314789433#4 4726271#0 138347489#0"/>
    </vehicle>
    <vehicle id="veh19" type="veh_passenger" depart="556.24" departLane="best" departSpeed="max">
        <route edges="130528361 -1298038631 -928805374#4 152445636#0 4726265#0 209114514#0 335993897"/>
    </vehicle>
    <vehicle id="veh20" type="veh_passenger" depart="585.52" departLane="best">
        <route edges="-928805374#4 152445636#0 4726265#0 209114514#0 335993897 265499402#0 265499402#4"/>
    </vehicle>
    <vehicle id="veh21" type="veh_passenger" depart="614.79" departLane="best" departSpeed="max">
        <route edges="130528361 -1298038631 -928805374#4 152445636#0 4726265#0 265499418"/>
    </vehicle>
    <vehicle id="veh22" type="veh_passenger" depart="644.07" departLane="best" departSpeed="max">
        <route edges="314789432 138347505#0 314789437#0 142517770 27729257#0 314789430#0 928805373"/>
    </vehicle>
    <vehicle id="veh23" type="veh_passenger" depart="673.34" departLane="best" departSpeed="max">
        <route edges="314789432 138347505#0 314789437#0 142517770 27729257#0 314789430#0 928805373 928805374#0 4824568#0 4824568#2 1413212084#0 1413212084#1 138347514#0 1267352664"/>
    </vehicle>
    <vehicle id="veh24" type="veh_passenger" depart="702.62" departLane="best">
        <route edges="-152445636#2 -171934808#4 171934808#0 -84657872#4 4828723#0 4828723#2 84657870#0 84657870#1 84657869#2"/>
    </vehicle>
    <vehicle id="veh25" type="veh_passenger" depart="731.90" departLane="best">
        <route edges="265499418 84657864#0 314789430#0 928805373 -171934808#4"/>
    </vehicle>
    <vehicle id="veh26" type="veh_passenger" depart="761.17" departLane="best">
        <route edges="1267352664 314789428#0"/>
    </vehicle>
    <vehicle id="veh27" type="veh_passenger" depart="790.45" departLane="best">
        <route edges="1081333389 4824695#0 4824695#1"/>
    </vehicle>
    <vehicle id="veh28" type="veh_passenger" depart="819.72" departLane="best" departSpeed="max">
        <route edges="314789432 138347505#0 314789437#0 138347498 314789433#0 314789433#1 314789433#2"/>
    </vehicle>
    <vehicle id="veh29" type="veh_passenger" depart="849.00" departLane="best" departSpeed="max">
        <route edges="171934808#0 152445636#0 4726265#0 265499418 314789436#0 84657869#0"/>
    </vehicle>
    <vehicle id="veh30" type="veh_passenger" depart="878.28" departLane="best" departSpeed="max">
        <route edges="314789426 1267352664 314789428#0 4824557#0 -152445636#2 928805374#0 1298038631"/>
    </vehicle>
    <vehicle id="veh31" type="veh_passenger" depart="907.55" departLane="best">
        <route edges="152445636#0 -152445636#2 928805374#0 4824568#0 4824568#2 1413212083"/>
    </vehicle>
    <vehicle id="veh32" type="veh_passenger" depart="936.83" departLane="best">
        <route edges="928805374#0 -928805374#4 152445636#0 4726265#0 450074238"/>
    </vehicle>
    <vehicle id="veh33" type="veh_passenger" depart="966.10" departLane="best">
        <route edges="314789414 66227390#0 209114515#0 265499418 314789436#0"/>
    </vehicle>
    <vehicle id="veh34" type="veh_passenger" depart="995.38" departLane="best" departSpeed="max">
        <route edges="153897364#0 314789414 66227390#0 450074239 4824557#0 -152445636#2 928805374#0 4824568#0 4824568#2 1413212083 130764244"/>
    </vehicle>
    <vehicle id="veh35" type="veh_passenger" depart="1024.66" departLane="best" departSpeed="max">
        <route edges="153897364#0 314789414 66227390#0 209114515#0 265499418 314789436#0 84657869#0 84657869#2"/>
    </vehicle>
    <vehicle id="veh36" type="veh_passenger" depart="1053.93" departLane="best">
        <route edges="66227390#0 450074239 4824557#0 -152445636#2 -171934808#4"/>
    </vehicle>
    <vehicle id="veh37" type="veh_passenger" depart="1083.21" departLane="best" departSpeed="max">
        <route edges="171934808#0 152445636#0 4726265#0"/>
    </vehicle>
    <vehicle id="veh38" type="veh_passenger" depart="1112.48" departLane="best" departSpeed="max">
        <route edges="153897364#0 314789414 66227390#0 450074239 4824557#0 -152445636#2 928805374#0 -928805374#4"/>
    </vehicle>
    <vehicle id="veh39" type="veh_passenger" depart="1141.76" departLane="best" departSpeed="max">
        <route edges="84657867 314994947#0 138347498 314789433#0 314789433#1 314789433#2 314789433#4"/>
    </vehicle>
    <vehicle id="veh40" type="veh_passenger" depart="1171.03" departLane="best" departSpeed="max">
        <route edges="314789432 138347505#0 314789437#0 138347498 314789433#0 4824697#0"/>
    </vehicle>
    <vehicle id="veh41" type="veh_passenger" depart="1200.31" departLane="best" departSpeed="max">
        <route edges="130528361 -1298038631 -928805374#4 152445636#0 4726265#0 265499418"/>
    </vehicle>
    <vehicle id="veh42" type="veh_passenger" depart="1229.59" departLane="best" departSpeed="max">
        <route edges="314789426 1267352664 314789428#0 4824557#0 -152445636#2 152445636#0"/>
    </vehicle>
    <vehicle id="veh43" type="veh_passenger" depart="1258.86" departLane="best" departSpeed="max">
        <route edges="171934808#0 -84657872#4 4828723#0 4828723#2 84657870#0 84657870#1 84657869#2"/>
    </vehicle>
    <vehicle id="veh44" type="veh_passenger" depart="1288.14" departLane="best">
        <route edges="314789428#0 265499418 314789436#0 84657865"/>
    </vehicle>
    <vehicle id="veh45" type="veh_passenger" depart="1317.41" departLane="best">
        <route edges="66227390#0 450074239 4824557#0 -152445636#2 -171934808#4 171934808#0 -84657872#4 4828723#0 1257751783#0"/>
    </vehicle>
    <vehicle id="veh46" type="veh_passenger" depart="1346.69" departLane="best" departSpeed="max">
        <route edges="314789432 138347505#0 314789437#0 142517770 27729257#0 314789430#0 928805373 928805374#0 1298038631"/>
    </vehicle>
    <vehicle id="veh47" type="veh_passenger" depart="1375.97" departLane="best" departSpeed="max">
        <route edges="314789426 1267352664 314789428#0 4824557#0 -152445636#2 -171934808#4"/>
    </vehicle>
    <vehicle id="veh48" type="veh_passenger" depart="1405.24" departLane="best" departSpeed="max">
        <route edges="314789426 1267352664 314789428#0 265499418 314789436#0 84657865 98428996#0"/>
    </vehicle>
    <vehicle id="veh49" type="veh_passenger" depart="1434.52" departLane="best" departSpeed="max">
        <route edges="314789432 138347505#0 314789437#0 142517770 27729257#0 314789430#0 928805373 152445636#0 4726265#0 265499418"/>
    </vehicle>
    <vehicle id="veh50" type="veh_passenger" depart="1463.79" departLane="best">
        <route edges="138347505#0 314789437#0 142517770 27729257#0 314789430#0 928805373 928805374#0 4824568#0 4824568#2 1413212084#0 1413212084#1 138347514#0"/>
    </vehicle>
    <vehicle id="veh51" type="veh_passenger" depart="1493.07" departLane="best">
        <route edges="-84657872#4 928805373 152445636#0 4726265#0 265499418 314789436#0"/>
    </vehicle>
    <vehicle id="veh52" type="veh_passenger" depart="1522.34" departLane="best">
        <route edges="138347505#0 314789437#0 142517770 27729257#0 314789430#0 928805373"/>
    </vehicle>
    <vehicle id="veh53" type="veh_passenger" depart="1551.62" departLane="best">
        <route edges="314789437#0 142517770 27729257#0 314789430#0 928805373 152445636#0 4726265#0"/>
    </vehicle>
    <vehicle id="veh54" type="veh_passenger" depart="1580.90" departLane="best" departSpeed="max">
        <route edges="314789426 1267352664 314789428#0 265499418 314789436#0"/>
    </vehicle>
    <vehicle id="veh55" type="veh_passenger" depart="1610.17" departLane="best" departSpeed="max">
        <route edges="171934808#0 152445636#0 4726265#0 209114514#0 335993897 265499402#0 265499402#4"/>
    </vehicle>
    <vehicle id="veh56" type="veh_passenger" depart="1639.45" departLane="best">
        <route edges="928805374#0 -928805374#4 -84657872#4 4828723#0 4828723#2 4828723#3 84657865 98428996#0"/>
    </vehicle>
    <vehicle id="veh57" type="veh_passenger" depart="1668.72" departLane="best" departSpeed="max">
        <route edges="171934808#0 -84657872#4 4828723#0 4828723#2 84657870#0 84657870#1 84657869#2"/>
    </vehicle>
    <vehicle id="veh58" type="veh_passenger" depart="1698.00" departLane="best" departSpeed="max">
        <route edges="314789426 1267352664 314789428#0 4824557#0 -152445636#2 -171934808#4 171934808#0 -84657872#4 4828723#0 1257751783#0"/>
    </vehicle>
    <vehicle id="veh59" type="veh_passenger" depart="1727.28" departLane="best">
        <route edges="450074239 4824557#0 4726265#0 265499418 314789436#0 84657869#0 84657869#2"/>
    </vehicle>
    <vehicle id="veh60" type="veh_passenger" depart="1756.55" departLane="best">
        <route edges="138347498 314789433#0 4824697#0 4824697#3 -4824702"/>
    </vehicle>
    <vehicle id="veh61" type="veh_passenger" depart="1785.83" departLane="best" departSpeed="max">
        <route edges="130528361 -1298038631 -928805374#4 152445636#0 4726265#0 265499418 4877725 314789433#2"/>
    </vehicle>
    <vehicle id="veh62" type="veh_passenger" depart="1815.10" departLane="best" departSpeed="max">
        <route edges="4221194#0 4221194#1 4726265#0 450074238 4726271#0 138347489#0"/>
    </vehicle>
    <vehicle id="veh63" type="veh_passenger" depart="1844.38" departLane="best" departSpeed="max">
        <route edges="4834297#0 -1298038631 -928805374#4 152445636#0 4726265#0 450074238 4726271#0 1081333389 4824695#0 -4824702"/>
    </vehicle>
    <vehicle id="veh64" type="veh_passenger" depart="1873.66" departLane="best">
        <route edges="-1081647125 130764246 314789428#0 265499418 4877725 314789433#2 314789433#4 4726271#0 1081333389 4824695#0 4824695#1"/>
    </vehicle>
    <vehicle id="veh65" type="veh_passenger" depart="1902.93" departLane="best" departSpeed="max">
        <route edges="4221194#0 4221194#1 4726265#0 450074238 4726271#0 138347489#0"/>
    </vehicle>
    <vehicle id="veh66" type="veh_passenger" depart="1932.21" departLane="best" departSpeed="max">
        <route edges="314789426 1267352664 314789428#0 4824557#0 -152445636#2 928805374#0 1298038631 -1298038631"/>
    </vehicle>
    <vehicle id="veh67" type="veh_passenger" depart="1961.48" departLane="best">
        <route edges="1267352664 314789428#0 265499418 314789436#0 84657869#0 84657869#2"/>
    </vehicle>
    <vehicle id="veh68" type="veh_passenger" depart="1990.76" departLane="best" departSpeed="max">
        <route edges="4834297#0 -1298038631 -928805374#4 152445636#0 4726265#0 265499418 314789436#0"/>
    </vehicle>
    <vehicle id="veh69" type="veh_passenger" depart="2020.03" departLane="best">
        <route edges="138347505#0 314789437#0 142517770 27729257#0 314789430#0 928805373 928805374#0 -928805374#4"/>
    </vehicle>
    <vehicle id="veh70" type="veh_passenger" depart="2049.31" departLane="best">
        <route edges="265499418 314789436#0 84657869#0 84657869#2"/>
    </vehicle>
    <vehicle id="veh71" type="veh_passenger" depart="2078.59" departLane="best">
        <route edges="84657864#0 314789430#0 928805373 928805374#0 1298038631"/>
    </vehicle>
    <vehicle id="veh72" type="veh_passenger" depart="2107.86" departLane="best" departSpeed="max">
        <route edges="171934808#0 152445636#0 4726265#0 450074238 4726271#0 1081333389 4824695#0 -4824702"/>
    </vehicle>
    <vehicle id="veh73" type="veh_passenger" depart="2137.14" departLane="best">
        <route edges="66227390#0 209114515#0 265499418 314789436#0 84657865 98428996#0"/>
    </vehicle>
    <vehicle id="veh74" type="veh_passenger" depart="2166.41" departLane="best">
        <route edges="314789414 66227390#0 209114515#0 265499418 314789436#0 84657869#0 84657869#2"/>
    </vehicle>
    <vehicle id="veh75" type="veh_passenger" depart="2195.69" departLane="best" departSpeed="max">
        <route edges="153897364#0 314789414 66227390#0 450074239 4824557#0 -152445636#2 -171934808#4 171934808#0 -84657872#4 4828723#0 4828723#2"/>
    </vehicle>
    <vehicle id="veh76" type="veh_passenger" depart="2224.97" departLane="best" departSpeed="max">
        <route edges="4221194#0 4221194#1 4726265#0 209114514#0 335993897 265499402#0 265499402#4"/>
    </vehicle>
    <vehicle id="veh77" type="veh_passenger" depart="2254.24" departLane="best" departSpeed="max">
        <route edges="130528361 -1298038631 -928805374#4 152445636#0 4726265#0 265499418"/>
    </vehicle>
    <vehicle id="veh78" type="veh_passenger" depart="2283.52" departLane="best" departSpeed="max">
        <route edges="314789426 1267352664 314789428#0 265499418 314789436#0"/>
    </vehicle>
    <vehicle id="veh79" type="veh_passenger" depart="2312.79" departLane="best">
        <route edges="-1081647125 130764246 314789428#0 265499418 314789436#0 84657869#0 84657869#2"/>
    </vehicle>
    <vehicle id="veh80" type="veh_passenger" depart="2342.07" departLane="best" departSpeed="max">
        <route edges="314789426 1267352664 314789428#0 4824557#0 -152445636#2 -171934808#4"/>
    </vehicle>
    <vehicle id="veh81" type="veh_passenger" depart="2371.34" departLane="best">
        <route edges="265499418 4877725 314789433#2 314789433#4 27557419#0 335993897 265499402#0 265499402#4"/>
    </vehicle>
    <vehicle id="veh82" type="veh_passenger" depart="2400.62" departLane="best" departSpeed="max">
        <route edges="314789426 1267352664 314789428#0 265499418 314789436#0"/>
    </vehicle>
    <vehicle id="veh83" type="veh_passenger" depart="2429.90" departLane="best">
        <route edges="314789428#0 4824557#0 -152445636#2 928805374#0 1298038631"/>
    </vehicle>
    <vehicle id="veh84" type="veh_passenger" depart="2459.17" departLane="best">
        <route edges="66227390#0 450074239 4824557#0 -152445636#2 -171934808#4"/>
    </vehicle>
    <vehicle id="veh85" type="veh_passenger" depart="2488.45" departLane="best" departSpeed="max">
        <route edges="314789426 1267352664 314789428#0 4824557#0 4726265#0 209114514#0 335993897"/>
    </vehicle>
    <vehicle id="veh86" type="veh_passenger" depart="2517.72" departLane="best">
        <route edges="142517770 27729257#0 314789430#0 928805373 928805374#0 4824568#0 4824568#2 1413212083 130764246 314789428#0 4824557#0"/>
    </vehicle>
    <vehicle id="veh87" type="veh_passenger" depart="2547.00" departLane="best" departSpeed="max">
        <route edges="314789432 138347505#0 314789437#0 138347498 314789433#0 314789433#1 314789433#2 314789433#4 4726271#0 138347489#0"/>
    </vehicle>
    <vehicle id="veh88" type="veh_passenger" depart="2576.28" departLane="best" departSpeed="max">
        <route edges="130528361 -1298038631 -928805374#4 152445636#0 4726265#0 265499418"/>
    </vehicle>
    <vehicle id="veh89" type="veh_passenger" depart="2605.55" departLane="best">
        <route edges="1413212084#0 1413212084#1 138347514#0 1267352664 314789428#0 265499418 84657864#0 314789430#0 928805373"/>
    </vehicle>
    <vehicle id="veh90" type="veh_passenger" depart="2634.83" departLane="best">
        <route edges="450074239 4824557#0 4726265#0 265499418 314789436#0 84657865 98428996#0"/>
    </vehicle>
    <vehicle id="veh91" type="veh_passenger" depart="2664.10" departLane="best">
        <route edges="4824568#2 1413212083 130764246 314789428#0 265499418 84657864#0 314789430#0"/>
    </vehicle>
    <vehicle id="veh92" type="veh_passenger" depart="2693.38" departLane="best" departSpeed="max">
        <route edges="4834297#0 -1298038631 -928805374#4 152445636#0 4726265#0 265499418 4877725 314789433#2"/>
    </vehicle>
    <vehicle id="veh93" type="veh_passenger" depart="2722.66" departLane="best">
        <route edges="84657864#0 314789430#0 928805373 928805374#0 4824568#0 4824568#2"/>
    </vehicle>
    <vehicle id="veh94" type="veh_passenger" depart="2751.93" departLane="best" departSpeed="max">
        <route edges="314789432 138347505#0 314789437#0 138347498 314789433#0 314789433#1 314789433#2 314789433#4 4726271#0 138347489#0"/>
    </vehicle>
    <vehicle id="veh95" type="veh_passenger" depart="2781.21" departLane="best" departSpeed="max">
        <route edges="171934808#0 152445636#0 -152445636#2 928805374#0 4824568#0 4824568#2 1413212084#0 1413212084#1"/>
    </vehicle>
    <vehicle id="veh96" type="veh_passenger" depart="2810.48" departLane="best">
        <route edges="4824557#0 -152445636#2 -171934808#4"/>
    </vehicle>
    <vehicle id="veh97" type="veh_passenger" depart="2839.76" departLane="best" departSpeed="max">
        <route edges="314789426 1267352664 314789428#0 265499418 4877725 314789433#2"/>
    </vehicle>
    <vehicle id="veh98" type="veh_passenger" depart="2869.03" departLane="best" departSpeed="max">
        <route edges="314789426 1267352664 314789428#0 4824557#0 -152445636#2 928805374#0 1298038631"/>
    </vehicle>
    <vehicle id="veh99" type="veh_passenger" depart="2898.31" departLane="best" departSpeed="max">
        <route edges="314789426 1267352664 314789428#0 265499418 314789436#0 84657869#0 84657869#2"/>
    </vehicle>
    <vehicle id="veh100" type="veh_passenger" depart="2927.59" departLane="best">
        <route edges="66227390#0 209114515#0 265499418 4877725 314789433#2 314789433#4 4726271#0 1081333389 4824695#0 4824695#1"/>
    </vehicle>
    <vehicle id="veh101" type="veh_passenger" depart="2956.86" departLane="best" departSpeed="max">
        <route edges="314789426 1267352664 314789428#0 4824557#0 -152445636#2 928805374#0 1298038631 -1298038631"/>
    </vehicle>
    <vehicle id="veh102" type="veh_passenger" depart="2986.14" departLane="best">
        <route edges="314789414 66227390#0 209114515#0 265499418 4877725 314789433#2 314789433#4 4726271#0 1081333389 4824695#0 4824695#1"/>
    </vehicle>
    <vehicle id="veh103" type="veh_passenger" depart="3015.41" departLane="best">
        <route edges="66227390#0 209114515#0 265499418 84657864#0 314789430#0 928805373"/>
    </vehicle>
    <vehicle id="veh104" type="veh_passenger" depart="3044.69" departLane="best" departSpeed="max">
        <route edges="314789426 1267352664 314789428#0 265499418 4877725 314789433#2 314789433#4 4726271#0 1081333389 4824695#0"/>
    </vehicle>
    <vehicle id="veh105" type="veh_passenger" depart="3073.97" departLane="best" departSpeed="max">
        <route edges="153897364#0 314789414 66227390#0 450074239 4824557#0 -152445636#2 928805374#0 4824568#0 4824568#2 1413212083 130764244"/>
    </vehicle>
    <vehicle id="veh106" type="veh_passenger" depart="3103.24" departLane="best">
        <route edges="314789428#0 4824557#0 -152445636#2 -171934808#4"/>
    </vehicle>
    <vehicle id="veh107" type="veh_passenger" depart="3132.52" departLane="best" departSpeed="max">
        <route edges="314789426 1267352664 314789428#0 4824557#0 -152445636#2 -171934808#4 171934808#0 -84657872#4 4828723#0 1257751783#0"/>
    </vehicle>
    <vehicle id="veh108" type="veh_passenger" depart="3161.79" departLane="best" departSpeed="max">
        <route edges="314789432 138347505#0 314789437#0 142517770 27729257#0 314789430#0 928805373 928805374#0 -928805374#4"/>
    </vehicle>
    <vehicle id="veh109" type="veh_passenger" depart="3191.07" departLane="best" departSpeed="max">
        <route edges="314789426 1267352664 314789428#0 265499418 4877725 314789433#2 314789433#4"/>
    </vehicle>
    <vehicle id="veh110" type="veh_passenger" depart="3220.34" departLane="best" departSpeed="max">
        <route edges="-4824695#2 -4824695#0 132964155#0 314789433#4 27557419#0 335993897 265499402#0 265499402#4"/>
    </vehicle>
    <vehicle id="veh111" type="veh_passenger" depart="3249.62" departLane="best">
        <route edges="4824697#3 -4824695#0 132964155#0 314789433#4 27557419#0 335993897 265499402#0 265499402#4"/>
    </vehicle>
    <vehicle id="veh112" type="veh_passenger" depart="3278.90" departLane="best">
        <route edges="928805374#0 -928805374#4 152445636#0 4726265#0 209114514#0 335993897 265499402#0"/>
    </vehicle>
    <vehicle id="veh113" type="veh_passenger" depart="3308.17" departLane="best">
        <route edges="4221194#1 4726265#0 450074238 4726271#0 1081333389 4824695#0 4824695#1"/>
    </vehicle>
    <vehicle id="veh114" type="veh_passenger" depart="3337.45" departLane="best">
        <route edges="4221194#1 4726265#0 450074238 4726271#0 1081333389 4824695#0 4824695#1"/>
    </vehicle>
    <vehicle id="veh115" type="veh_passenger" depart="3366.72" departLane="best">
        <route edges="4726271#0 1081333389 4824695#0 4824695#1"/>
    </vehicle>
    <vehicle id="veh116" type="veh_passenger" depart="3396.00" departLane="best" departSpeed="max">
        <route edges="130528361 -1298038631 -928805374#4 152445636#0 4726265#0 450074238 4726271#0 1081333389 4824695#0 4824695#1"/>
    </vehicle>
    <vehicle id="veh117" type="veh_passenger" depart="3425.28" departLane="best">
        <route edges="130764246 314789428#0 265499418 314789436#0 84657865 98428996#0"/>
    </vehicle>
    <vehicle id="veh118" type="veh_passenger" depart="3454.55" departLane="best" departSpeed="max">
        <route edges="4824702 -4824695#0 132964155#0 314789433#4 27557419#0 335993897 265499402#0"/>
    </vehicle>
    <vehicle id="veh119" type="veh_passenger" depart="3483.83" departLane="best" departSpeed="max">
        <route edges="4221194#0 4221194#1 -152445636#2 -171934808#4 171934808#0 -84657872#4 4828723#0 4828723#2 4828723#3"/>
    </vehicle>
    <vehicle id="veh120" type="veh_passenger" depart="3513.10" departLane="best">
        <route edges="314789428#0 4824557#0 -152445636#2 928805374#0 4824567"/>
    </vehicle>
    <vehicle id="veh121" type="veh_passenger" depart="3542.38" departLane="best" departSpeed="max">
        <route edges="4834297#0 -1298038631 -928805374#4 152445636#0 4726265#0 450074238 4726271#0 1081333389 4824695#0 -4824695#0"/>
    </vehicle>
    <vehicle id="veh122" type="veh_passenger" depart="3571.66" departLane="best" departSpeed="max">
        <route edges="314789426 1267352664 314789428#0 4824557#0 -152445636#2 -171934808#4"/>
    </vehicle>
</routes>
