<?xml version="1.0" encoding="UTF-8"?>

<!-- generated on 2025-11-17 21:13:21 by Eclipse SUMO polyconvert Version 1.24.0
<polyconvertConfiguration xmlns:xsi="http://www.w3.org/2001/XMLSchema-instance" xsi:noNamespaceSchemaLocation="http://sumo.dlr.de/xsd/polyconvertConfiguration.xsd">

    <input>
        <net-file value="osm.net.xml.gz"/>
        <osm-files value="osm_bbox.osm.xml.gz"/>
        <osm.keep-full-type value="true"/>
        <osm.merge-relations value="1"/>
        <type-file value="${SUMO_HOME}/data/typemap/osmPolyconvert.typ.xml"/>
    </input>

    <output>
        <output-file value="osm.poly.xml.gz"/>
    </output>

    <report>
        <verbose value="true"/>
    </report>

</polyconvertConfiguration>
-->

<additional xmlns:xsi="http://www.w3.org/2001/XMLSchema-instance" xsi:noNamespaceSchemaLocation="http://sumo.dlr.de/xsd/additional_file.xsd">
    <location netOffset="-967353.41,-6468321.35" convBoundary="-54.16,-3.91,785.27,573.71" origBoundary="8.689397,50.127105,8.696938,50.130432" projParameter="+proj=merc +a=6378137 +b=6378137 +lat_ts=0.0 +lon_0=0.0 +x_0=0.0 +y_0=0 +k=1.0 +units=m +nadgrids=@null +wktext +no_defs"/>

    <poly id="1067931264" type="building.yes" color="255,230,230" fill="1" layer="-1.00" shape="605.262608,8.229843 619.311128,4.982735 618.264725,-3.490993 603.837719,0.086030 605.262608,8.229843"/>
    <poly id="1067944995" type="building.retail" color="255,230,230" fill="1" layer="-1.00" shape="355.495067,270.329420 357.298442,272.465286 361.205757,269.634829 359.636152,267.360046 355.495067,270.329420"/>
    <poly id="1068052139" type="building.apartments" color="255,230,230" fill="1" layer="-1.00" shape="213.518188,137.125402 208.553339,137.542149 207.974478,130.665817 212.961591,130.249069 213.518188,137.125402"/>
    <poly id="1068261266" type="building.service" color="255,230,230" fill="1" layer="-1.00" shape="108.232214,229.886989 110.837090,230.425294 111.727646,226.049396 109.111638,225.528456 108.232214,229.886989"/>
    <poly id="1068261271" type="building.yes" color="255,230,230" fill="1" layer="-1.00" shape="-10.011349,242.042272 -13.829608,260.171041 -4.590090,262.115892 1.209655,234.644912 -4.879521,233.359925 -8.040994,232.700067 -10.011349,242.042272"/>
    <poly id="1068261276" type="building.yes" color="255,230,230" fill="1" layer="-1.00" shape="-53.214444,215.665330 -54.071604,220.232234 -48.706004,221.222019 -49.206942,223.913542 -44.709635,224.747046 -43.997190,220.926820 -40.000820,221.864512 -39.733653,220.822632 -38.186312,214.432441 -52.657846,212.105578 -53.214444,215.665330"/>
    <poly id="1068261281" type="building.garage" color="255,230,230" fill="1" layer="-1.00" shape="42.197492,262.358998 41.195616,266.978022 49.800613,268.749227 50.056648,268.801321 51.192107,264.234391 42.197492,262.358998"/>
    <poly id="1068289549" type="building.garage" color="255,230,230" fill="1" layer="-1.00" shape="51.570593,374.344992 52.884163,367.989412 44.357090,366.235551 43.878416,368.597186 38.935831,367.590018 40.171477,361.547013 35.317947,360.539846 33.225141,370.750442 34.393996,370.993552 51.570593,374.344992"/>
    <poly id="1068289551" type="building.yes" color="255,230,230" fill="1" layer="-1.00" shape="-45.911885,413.225271 -38.408951,378.130559 -37.084250,378.425763 -23.191577,381.395177 -23.302897,381.933492 -25.095140,390.303423 -27.143419,399.888915 -29.202830,409.474419 -33.989568,409.196578 -35.091631,413.746223 -45.911885,413.225271"/>
    <poly id="1068289552" type="building.yes" color="255,230,230" fill="0" layer="-1.00" shape="-53.893493,392.352495 -52.969541,392.543510 -52.746902,391.501609 -50.898998,390.372883 -52.156909,388.688477 -51.655971,386.326836 -54.116132,385.788521 -54.160659,386.014266"/>
    <poly id="1068289555" type="building.house" color="255,230,230" fill="1" layer="-1.00" shape="86.391330,416.021046 87.771691,416.733014 91.979568,423.991615 88.428476,425.814949 84.320787,425.936505 85.077760,422.237742 86.391330,416.021046"/>
    <poly id="1068289556" type="building.apartments" color="255,230,230" fill="1" layer="-1.00" shape="161.765757,396.554830 166.340988,393.863251 158.893714,381.673017 161.320479,370.594158 156.800908,369.604354 155.587525,375.161146 155.231303,375.091686 154.429802,378.773063 154.017920,378.686238 153.338871,381.777207 161.765757,396.554830"/>
    <poly id="1068289560" type="building.garage" color="255,230,230" fill="1" layer="-1.00" shape="107.408450,355.920770 101.374933,354.618400 99.716273,363.717632 105.516018,364.811624 107.408450,355.920770"/>
    <poly id="1070367224" type="building.apartments" color="255,230,230" fill="1" layer="-1.00" shape="463.129882,365.454128 464.254209,364.377500 465.423064,365.610413 464.343265,366.634945 463.129882,365.454128"/>
    <poly id="1070367251" type="building.yes" color="255,230,230" fill="1" layer="-1.00" shape="656.937116,258.833956 668.592267,262.063798 670.952240,253.589807 668.558871,252.929947 657.337866,249.821662 654.020545,251.193475 656.759005,258.417202 656.937116,258.833956"/>
    <poly id="1070367252" type="building.yes" color="255,230,230" fill="1" layer="-1.00" shape="640.183532,253.815548 653.363760,249.439638 654.020545,251.193475 656.759005,258.417202 643.333874,263.713448 640.517491,256.437622 641.007297,256.263975 640.183532,253.815548"/>
    <poly id="1070367253" type="building.yes" color="255,230,230" fill="1" layer="-1.00" shape="643.701228,264.633780 645.081590,269.009698 635.330003,272.222179 633.949641,267.846259 643.701228,264.633780"/>
    <poly id="1070367254" type="building.yes" color="255,230,230" fill="1" layer="-1.00" shape="640.517491,256.437622 643.333874,263.713448 643.701228,264.633780 633.949641,267.846259 633.059085,265.015805 635.096232,264.286485 633.226064,259.146521 640.517491,256.437622"/>
    <poly id="1070367256" type="building.yes" color="255,230,230" fill="1" layer="-1.00" shape="632.034946,259.598004 633.226064,259.146521 640.517491,256.437622 641.007297,256.263975 640.183532,253.815548 635.975656,241.417142 628.884604,243.726648 626.491235,236.659216 623.819567,237.614274 626.836326,246.505001 627.515374,246.261895 632.034946,259.598004"/>
    <poly id="1070407385" type="building.college" color="255,230,230" fill="1" layer="-1.00" shape="157.836179,534.694754 158.159005,540.911539 161.877076,540.720520 161.554250,534.451640 157.836179,534.694754"/>
    <poly id="1070407387" type="building.yes" color="255,230,230" fill="1" layer="-1.00" shape="157.524484,573.714706 159.795402,573.558418 157.524484,573.714706"/>
    <poly id="1070407388" type="building.college" color="255,230,230" fill="1" layer="-1.00" shape="246.802716,463.497272 246.646869,460.927228 254.149802,460.475734 254.305650,463.045778 246.802716,463.497272"/>
    <poly id="1126514605" type="natural.tree_row" color="140,196,107" fill="0" layer="-4.00" shape="3.068691,563.677514 99.671745,513.144427 127.045208,497.359413"/>
    <poly id="1126514606" type="natural.tree_row" color="140,196,107" fill="0" layer="-4.00" shape="-30.059990,526.428869 -0.437873,510.973769 36.286427,494.546245 52.405489,490.378591"/>
    <poly id="1126514607" type="natural.tree_row" color="140,196,107" fill="0" layer="-4.00" shape="178.897827,462.837396 269.155670,409.856450 319.204913,373.424648"/>
    <poly id="1126514608" type="natural.tree_row" color="140,196,107" fill="0" layer="-4.00" shape="330.091959,404.976871 375.476915,403.483478"/>
    <poly id="1127501267" type="leisure.park" color="207,245,201" fill="0" layer="-2.00" shape="36.264163,550.913973 90.977693,520.906706 139.056581,491.715713 170.927351,472.162494 250.120037,425.728124 279.987056,405.723568 327.231048,372.504305 332.752495,367.277449 336.336982,361.390728 336.270191,360.036262 315.731745,339.510918 277.148409,364.290676 246.023479,384.451416 205.191490,408.415151 165.327981,430.885556 88.740171,476.121757 73.656380,481.418142 47.607619,488.728895 29.173111,493.434871 -3.744062,508.212693"/>
    <poly id="1127501268" type="natural.tree_row" color="140,196,107" fill="0" layer="-4.00" shape="418.557558,294.779040 448.602689,271.822790 516.329467,221.690865"/>
    <poly id="1127501269" type="natural.tree_row" color="140,196,107" fill="0" layer="-4.00" shape="406.913540,277.310057 505.820907,201.131133"/>
    <poly id="1127501270" type="landuse.grass" color="194,194,130" fill="1" layer="-3.00" shape="549.569467,161.157881 584.056245,172.566388 589.087886,168.572540 554.022247,157.493966 549.569467,161.157881"/>
    <poly id="1127501271" type="landuse.grass" color="194,194,130" fill="1" layer="-3.00" shape="563.506667,150.079316 566.812856,147.214173 599.930405,156.243720 596.390445,157.164040 590.568435,157.164040 582.007967,155.097661 563.506667,150.079316"/>
    <poly id="1127501272" type="natural.tree_row" color="140,196,107" fill="0" layer="-4.00" shape="716.092293,24.430670 617.062474,116.270684"/>
    <poly id="1127501273" type="natural.tree_row" color="140,196,107" fill="0" layer="-4.00" shape="615.236835,133.392039 698.726453,59.610710"/>
    <poly id="1127501276" type="leisure.park" color="207,245,201" fill="0" layer="-2.00" shape="732.890404,2.395469 734.537933,7.778373 739.758817,12.918182 745.057625,15.088710 750.512280,15.314445 756.256366,13.890578 761.777812,11.355402 766.631342,7.031712"/>
    <poly id="1127743835" type="landuse.railway" color="194,194,130" fill="1" layer="-3.00" shape="566.812856,147.214173 571.209976,144.522675 576.430860,143.255067 584.724162,142.734132 592.182568,143.845460 610.027082,149.297913 605.774678,153.100742 602.112267,155.427587 599.930405,156.243720 566.812856,147.214173"/>
    <poly id="1127743836" type="landuse.railway" color="194,194,130" fill="1" layer="-3.00" shape="634.372655,166.193598 637.790163,161.539901 722.960706,185.502993 721.769587,189.080098 689.976741,184.704222 690.800505,181.717514 634.372655,166.193598"/>
    <poly id="1127747288" type="landuse.railway" color="194,194,130" fill="1" layer="-3.00" shape="541.276165,143.393983 552.029628,133.183665 558.074276,134.972206 546.875535,145.338806 541.276165,143.393983"/>
    <poly id="1127747289" type="landuse.railway" color="194,194,130" fill="1" layer="-3.00" shape="534.930954,138.028355 541.955214,130.492172 505.152990,121.688391 485.594156,119.587292 472.825810,116.305413 494.098965,127.123466 513.958362,135.197944 514.848918,132.436993 534.930954,138.028355"/>
    <poly id="1127747290" type="landuse.grass" color="194,194,130" fill="1" layer="-3.00" shape="513.958362,135.197944 523.888060,138.705570 531.947592,140.945589 534.930954,138.028355 514.848918,132.436993 513.958362,135.197944"/>
    <poly id="1127750017" type="landuse.grass" color="194,194,130" fill="1" layer="-3.00" shape="384.404738,359.688963 387.621872,357.309966 397.918925,366.409201 407.169574,376.793455 413.147431,387.316642 411.499903,388.063337 384.404738,359.688963"/>
    <poly id="1127750019" type="landuse.grass" color="194,194,130" fill="1" layer="-3.00" shape="395.458764,351.249603 407.470137,362.745195 420.605837,379.172458 435.389065,401.799069 441.511637,415.378539 446.142528,428.367617 450.840211,426.648473 446.888369,414.475555 440.609949,402.163735 431.659862,388.132797 415.240237,367.155894 397.473647,348.940067 395.458764,351.249603"/>
    <poly id="1127750020" type="landuse.grass" color="194,194,130" fill="1" layer="-3.00" shape="431.960425,430.746635 436.134906,429.044856 429.489132,413.885143 427.696888,414.249810 431.960425,430.746635"/>
    <poly id="1127750021" type="landuse.grass" color="194,194,130" fill="1" layer="-3.00" shape="470.476969,556.158310 474.506734,555.046927 470.476969,556.158310"/>
    <poly id="1127750022" type="landuse.grass" color="194,194,130" fill="1" layer="-3.00" shape="483.835308,552.199009 488.087712,551.087627 483.835308,552.199009"/>
    <poly id="1157600065" type="leisure.dog_park" color="207,245,201" fill="0" layer="-2.00" shape="-34.368054,528.842645 -32.264116,527.661805 -30.059990,526.428869 -26.353051,533.809123 -12.905656,560.517016 -14.408469,563.833802 -16.289769,567.949397"/>
    <poly id="130523747" type="building.apartments" color="255,230,230" fill="1" layer="-1.00" shape="511.709708,-2.240772"/>
    <poly id="130523748" type="building.apartments" color="255,230,230" fill="1" layer="-1.00" shape="549.780974,91.908411 542.957089,74.370397 554.679032,69.508379 561.235750,87.115841 557.918429,88.487627 549.780974,91.908411"/>
    <poly id="130523752" type="building.yes" color="255,230,230" fill="1" layer="-1.00" shape="581.362314,23.579822 574.215602,26.601201 567.447377,29.744132 571.221108,38.947194 574.315790,37.801152 584.746426,33.494812 585.458871,33.199620 584.501523,30.942266 581.362314,23.579822"/>
    <poly id="130523753" type="building.yes" color="255,230,230" fill="1" layer="-1.00" shape="589.388449,2.499654 569.985462,10.660833 567.937183,11.615865 574.215602,26.601201 581.362314,23.579822 595.622340,17.519702 589.388449,2.499654"/>
    <poly id="130523754" type="building.yes" color="255,230,230" fill="0" layer="-1.00" shape="569.985462,10.660833 589.388449,2.499654"/>
    <poly id="130523755" type="building.apartments" color="255,230,230" fill="1" layer="-1.00" shape="524.756352,29.257932 553.320934,17.241875 548.678911,6.319779 537.123948,11.164395 533.294557,13.560658 531.068168,8.229843 518.344350,13.560658 524.756352,29.257932"/>
    <poly id="130523757" type="building.apartments" color="255,230,230" fill="1" layer="-1.00" shape="543.469159,39.919593 541.175977,34.467211 544.048020,33.894190 558.129936,27.834063 553.599233,17.068232 553.320934,17.241875 524.756352,29.257932 531.201751,44.989965 543.469159,39.919593"/>
    <poly id="130523758" type="building.apartments" color="255,230,230" fill="1" layer="-1.00" shape="518.344350,13.560658 531.068168,8.229843 528.585743,2.412833 531.146091,2.187098 544.448770,-3.525722 511.709708,-2.240772 518.344350,13.560658"/>
    <poly id="130523760" type="building.apartments" color="255,230,230" fill="1" layer="-1.00" shape="555.536192,106.650790 560.790472,107.918392 581.718536,89.095380 575.395589,82.618468 560.768208,95.971679 559.309922,91.804224 557.918429,88.487627 549.780974,91.908411 555.536192,106.650790"/>
    <poly id="130523761" type="building.apartments" color="255,230,230" fill="1" layer="-1.00" shape="535.331704,54.974438 542.957089,74.370397 554.679032,69.508379 560.066895,67.198922 555.758831,56.519862 565.243251,52.630256 563.517799,48.323909 554.211490,52.039870 552.508302,47.872438 535.331704,54.974438"/>
    <poly id="130523762" type="building.apartments" color="255,230,230" fill="1" layer="-1.00" shape="552.508302,47.872438 560.590097,44.538493 560.178214,43.514000 558.040880,38.391537 557.907297,38.044251 545.884792,43.027800 544.437638,39.520215 543.469159,39.919593 531.201751,44.989965 535.331704,54.974438 552.508302,47.872438"/>
    <poly id="130536326" type="building.yes" color="255,230,230" fill="1" layer="-1.00" shape="381.688543,166.384608 399.477398,171.333504 392.397478,187.586743 385.273031,185.572451 377.046520,183.297691 381.688543,166.384608"/>
    <poly id="130536327" type="building.yes" color="255,230,230" fill="1" layer="-1.00" shape="372.026011,163.693104 377.436138,165.203819 381.688543,166.384608 377.046520,183.297691 376.044645,183.002493 367.461912,180.588817 372.026011,163.693104"/>
    <poly id="130536328" type="building.house" color="255,230,230" fill="1" layer="-1.00" shape="356.797505,159.508251 372.026011,163.693104 367.461912,180.588817 352.099822,176.421320 356.797505,159.508251"/>
    <poly id="130536329" type="building.apartments" color="255,230,230" fill="1" layer="-1.00" shape="279.096500,182.498920 277.115013,159.195689 296.707244,157.476601 298.800050,180.814556 279.096500,182.498920"/>
    <poly id="130536330" type="building.yes" color="255,230,230" fill="1" layer="-1.00" shape="399.477398,171.333504 405.143560,157.997537 418.390579,163.779926 412.613097,177.081174 399.477398,171.333504"/>
    <poly id="130536331" type="building.apartments" color="255,230,230" fill="1" layer="-1.00" shape="275.066735,135.753608 294.536514,134.051889 293.067096,116.253319 292.087485,116.340141 291.965033,114.898893 273.497130,116.392235 275.066735,135.753608"/>
    <poly id="130536332" type="building.apartments" color="255,230,230" fill="1" layer="-1.00" shape="302.796420,227.473299 314.651946,215.873706 316.900599,213.685761 307.616554,204.326223 301.571905,198.092326 300.536634,196.946262 286.566038,210.785866 302.796420,227.473299"/>
    <poly id="130536333" type="building.apartments" color="255,230,230" fill="1" layer="-1.00" shape="446.164792,153.882145 449.927391,154.906652 449.771543,155.497045 458.810686,157.945443 460.536138,151.624758 463.831195,139.521701 451.018322,136.031439 446.164792,153.882145"/>
    <poly id="130536334" type="building.apartments" color="255,230,230" fill="1" layer="-1.00" shape="433.340787,150.704439 433.196071,151.242739 442.313138,153.743229 442.546909,152.857639 446.164792,153.882145 451.018322,136.031439 438.316768,132.558544 433.340787,150.704439"/>
    <poly id="130536335" type="building.apartments" color="255,230,230" fill="1" layer="-1.00" shape="277.115013,159.195689 296.707244,157.476601 295.783292,146.988434 294.336138,147.127350 294.135763,144.852600 295.471597,144.748413 294.536514,134.051889 275.066735,135.753608 277.115013,159.195689"/>
    <poly id="130536336" type="building.yes" color="255,230,230" fill="1" layer="-1.00" shape="360.348597,195.939115 351.031155,205.072902 363.365355,217.679630 376.144832,205.194455 373.205998,202.190375 374.330325,201.096404 367.940586,194.567311 367.139085,195.348718 364.100063,192.240454 360.348597,195.939115"/>
    <poly id="130536337" type="building.apartments" color="255,230,230" fill="1" layer="-1.00" shape="411.678014,139.938449 410.520291,144.418488 433.340787,150.704439 438.316768,132.558544 415.229105,126.098962 411.678014,139.938449"/>
    <poly id="130536338" type="building.apartments" color="255,230,230" fill="1" layer="-1.00" shape="381.065154,131.273573 386.786976,132.923198 385.551329,135.562599 382.211745,149.627839 391.718429,152.215151 400.022863,121.775213 384.816621,117.711932 381.065154,131.273573"/>
    <poly id="130536339" type="building.apartments" color="255,230,230" fill="1" layer="-1.00" shape="294.725757,92.811359 292.287860,101.406737 292.221068,101.927669 292.699742,102.049220 296.974410,103.230000 298.566279,103.646746 297.976286,105.747840 301.594169,106.772341 307.616554,108.421961 310.822555,97.117729 294.725757,92.811359"/>
    <poly id="130536340" type="building.apartments" color="255,230,230" fill="1" layer="-1.00" shape="476.287846,152.944461 477.434437,158.310098 490.714852,155.531774 488.900344,146.415406 463.831195,139.521701 460.536138,151.624758 465.500988,153.083377 466.502863,150.200868 476.287846,152.944461"/>
    <poly id="130536341" type="building.apartments" color="255,230,230" fill="1" layer="-1.00" shape="342.158992,141.761720 352.478309,144.626862 355.584122,133.392039 353.379996,132.784282 355.049789,126.776176 364.957223,129.519762 369.387739,113.457645 351.387378,108.474054 342.158992,141.761720"/>
    <poly id="130536342" type="building.apartments" color="255,230,230" fill="1" layer="-1.00" shape="310.822555,97.117729 307.616554,108.421961 305.813178,114.759978 305.512615,115.853937 328.121604,122.261418 328.956500,119.604657 333.353620,103.525195 310.822555,97.117729"/>
    <poly id="130536343" type="building.apartments" color="255,230,230" fill="1" layer="-1.00" shape="315.108355,240.097425 337.405649,218.478404 328.945368,209.622435 323.501845,214.901286 325.839554,217.314972 323.446185,219.676565 323.613165,221.638771 321.943372,223.288414 314.651946,215.873706 302.796420,227.473299 315.108355,240.097425"/>
    <poly id="130536344" type="building.apartments" color="255,230,230" fill="1" layer="-1.00" shape="338.797143,264.269120 352.801135,250.759357 346.789883,244.716436 344.641416,242.563213 342.559742,244.490695 339.420532,241.330319 327.542743,252.773665 338.797143,264.269120"/>
    <poly id="130536345" type="building.apartments" color="255,230,230" fill="1" layer="-1.00" shape="391.718429,152.215151 400.991343,154.819829 405.522046,142.404206 405.967324,138.358280 411.678014,139.938449 415.229105,126.098962 400.022863,121.775213 391.718429,152.215151"/>
    <poly id="130536346" type="building.apartments" color="255,230,230" fill="1" layer="-1.00" shape="273.497130,116.392235 291.965033,114.898893 290.629199,100.920533 289.905623,91.509030 274.966547,87.445764 271.471115,90.432438 273.497130,116.392235"/>
    <poly id="130536347" type="building.apartments" color="255,230,230" fill="1" layer="-1.00" shape="298.733258,194.931967 298.521751,190.747099 299.590418,190.695005 299.501363,188.836994 298.800050,180.814556 279.096500,182.498920 281.111383,205.055538 286.566038,210.785866 300.536634,196.946262 298.733258,194.931967"/>
    <poly id="130536348" type="building.apartments" color="255,230,230" fill="1" layer="-1.00" shape="364.957223,129.519762 361.027645,143.723908 371.057532,146.502228 375.666158,129.780229 381.065154,131.273573 384.816621,117.711932 369.387739,113.457645 364.957223,129.519762"/>
    <poly id="130536349" type="building.apartments" color="255,230,230" fill="1" layer="-1.00" shape="327.542743,252.773665 339.420532,241.330319 332.051182,233.672489 333.854558,231.831833 335.691329,232.265950 338.084698,229.939083 340.288824,232.213856 346.689695,225.910479 338.429789,217.419160 337.405649,218.478404 315.108355,240.097425 327.542743,252.773665"/>
    <poly id="130536350" type="building.apartments" color="255,230,230" fill="1" layer="-1.00" shape="328.956500,119.604657 339.008650,122.348240 337.316594,128.529987 334.823037,127.835409 331.795147,138.913944 342.158992,141.761720 351.387378,108.474054 333.353620,103.525195 328.956500,119.604657"/>
    <poly id="130546665" type="building.apartments" color="255,230,230" fill="1" layer="-1.00" shape="360.638027,72.095667 369.755093,38.929830 359.569360,36.064724 356.463546,47.386237 358.478429,47.924530 356.842033,53.828393 347.034785,51.067469 342.559742,67.216287 360.638027,72.095667"/>
    <poly id="130546679" type="building.apartments" color="255,230,230" fill="1" layer="-1.00" shape="447.578550,33.616362 454.758657,55.912111 471.835067,50.685454 464.788543,28.337627 447.578550,33.616362"/>
    <poly id="130546690" type="building.apartments" color="255,230,230" fill="1" layer="-1.00" shape="414.772696,87.011654 437.292629,93.228104 442.324270,75.186521 432.138536,72.356132 431.915897,73.154892 430.179313,72.686055 430.390820,71.939388 419.748677,68.970085 419.125288,71.019077 414.772696,87.011654"/>
    <poly id="130546707" type="building.apartments" color="255,230,230" fill="1" layer="-1.00" shape="263.689883,3.107401 282.625328,1.509895 263.689883,3.107401"/>
    <poly id="130546710" type="building.apartments" color="255,230,230" fill="1" layer="-1.00" shape="306.636942,57.353349 311.022930,41.204550 311.568396,39.363937 292.733138,34.085197 287.768289,52.213513 306.636942,57.353349"/>
    <poly id="130546711" type="building.apartments" color="255,230,230" fill="1" layer="-1.00" shape="265.727029,27.226314 282.747779,25.785081 284.651343,25.628803 284.428704,22.989438 282.625328,1.509895 263.689883,3.107401 265.727029,27.226314"/>
    <poly id="130546720" type="building.yes" color="255,230,230" fill="1" layer="-1.00" shape="351.877183,5.503662 351.587753,1.666172 333.030793,-2.935339 333.954745,7.014348 351.877183,5.503662"/>
    <poly id="130546721" type="building.apartments" color="255,230,230" fill="1" layer="-1.00" shape="442.635964,10.695561 439.841845,11.546408 443.003318,21.878126 444.238965,21.496113 444.951410,23.805557 443.648971,24.204935 446.621202,33.911555 447.578550,33.616362 464.788543,28.337627 457.942394,6.007224 442.635964,10.695561"/>
    <poly id="130546733" type="building.apartments" color="255,230,230" fill="1" layer="-1.00" shape="420.260746,-1.980309 423.377692,8.316664 434.420586,4.982735 433.752669,2.794846 439.708262,1.006333 442.635964,10.695561 457.942394,6.007224 420.260746,-1.980309"/>
    <poly id="130546736" type="building.apartments" color="255,230,230" fill="1" layer="-1.00" shape="419.125288,71.019077 409.596339,68.431790 411.243868,62.371638 413.748556,63.066211 416.865502,51.605762 405.822609,48.584374 396.694410,82.080172 414.772696,87.011654 419.125288,71.019077"/>
    <poly id="130546743" type="building.apartments" color="255,230,230" fill="1" layer="-1.00" shape="463.675348,85.101573 464.977786,89.234295 462.038951,99.930762 486.072829,106.581332 489.278831,103.056356 481.297223,79.579704 463.675348,85.101573"/>
    <poly id="130546745" type="building.apartments" color="255,230,230" fill="1" layer="-1.00" shape="267.240974,43.566093 270.357920,47.403602 287.768289,52.213513 292.733138,34.085197 283.193057,31.654200 282.747779,25.785081 265.727029,27.226314 267.240974,43.566093"/>
    <poly id="130546750" type="building.apartments" color="255,230,230" fill="1" layer="-1.00" shape="396.694410,82.080172 405.822609,48.584374 395.536688,45.615079 392.453138,56.867148 394.946694,57.596449 393.154450,63.864970 383.080037,61.156135 378.649521,77.148693 396.694410,82.080172"/>
    <poly id="130546758" type="building.apartments" color="255,230,230" fill="1" layer="-1.00" shape="342.559742,67.216287 324.514852,62.302181 333.698710,29.136383 344.351986,32.053578 341.279568,43.496636 338.774879,42.802064 337.183010,48.410731 347.034785,51.067469 342.559742,67.216287"/>
    <poly id="130546760" type="building.apartments" color="255,230,230" fill="1" layer="-1.00" shape="420.260746,-1.980309"/>
    <poly id="130546762" type="building.apartments" color="255,230,230" fill="1" layer="-1.00" shape="324.514852,62.302181 333.698710,29.136383 323.334866,26.323373 320.162260,37.870609 322.366386,38.478358 320.852441,43.896015 311.022930,41.204550 306.636942,57.353349 324.514852,62.302181"/>
    <poly id="130546763" type="building.apartments" color="255,230,230" fill="1" layer="-1.00" shape="383.080037,61.156135 373.706935,58.499394 375.465783,52.317699 377.781229,52.977542 380.875911,41.916486 369.755093,38.929830 360.638027,72.095667 378.649521,77.148693 383.080037,61.156135"/>
    <poly id="130577823" type="building.apartments" color="255,230,230" fill="1" layer="-1.00" shape="476.187659,64.038613 471.835067,50.685454 454.758657,55.912111 456.205810,60.513655 458.821818,68.414426 459.077853,69.317372 476.187659,64.038613"/>
    <poly id="130577824" type="building.apartments" color="255,230,230" fill="1" layer="-1.00" shape="481.297223,79.579704 476.187659,64.038613 459.077853,69.317372 463.675348,85.101573 481.297223,79.579704"/>
    <poly id="130737697" type="building.office" color="255,230,230" fill="1" layer="-1.00" shape="215.021001,229.730707 210.067284,252.912582 231.407230,257.166941 232.809856,250.741992 232.286654,250.620439 235.793218,234.262888 215.021001,229.730707"/>
    <poly id="130737698" type="building.apartments" color="255,230,230" fill="1" layer="-1.00" shape="223.848637,176.126123 219.362461,195.817562 233.266266,199.047380 238.053004,195.313989 236.238496,174.927968 223.848637,176.126123"/>
    <poly id="130737699" type="building.apartments" color="255,230,230" fill="1" layer="-1.00" shape="81.281765,368.128332 95.129910,370.819902 98.324779,353.975897 87.816219,351.753186 83.931169,354.357926 81.281765,368.128332"/>
    <poly id="130737700" type="building.apartments" color="255,230,230" fill="1" layer="-1.00" shape="154.474330,217.071867 150.400037,236.329286 149.565141,240.062696 169.602649,244.299683 169.680573,244.039213 174.578630,221.413031 154.474330,217.071867"/>
    <poly id="130737701" type="building.apartments" color="255,230,230" fill="1" layer="-1.00" shape="140.960144,315.269544 144.611423,298.616665 133.100988,296.116131 131.798550,295.855659 128.180667,312.491168 140.960144,315.269544"/>
    <poly id="130737702" type="building.apartments" color="255,230,230" fill="1" layer="-1.00" shape="150.400037,236.329286 154.474330,217.071867 117.126641,208.823662 112.395563,230.859411 125.286360,233.655125 128.180667,234.297618 133.256835,235.391593 133.947016,232.665338 150.400037,236.329286"/>
    <poly id="130737703" type="building.apartments" color="255,230,230" fill="1" layer="-1.00" shape="202.486427,68.987449 197.955723,85.778784 197.321202,88.279254 207.607123,90.866547 206.694303,94.756171 212.148958,96.058501 213.985730,95.902221 223.314303,95.172916 223.447887,94.686713 224.227123,91.161742 222.323560,90.727632 223.703922,84.632735 224.605609,84.841107 226.041631,83.486686 227.845007,75.169157 225.863520,74.717684 225.952575,74.439854 202.486427,68.987449"/>
    <poly id="130737704" type="building.apartments" color="255,230,230" fill="1" layer="-1.00" shape="216.034009,112.415779 230.872897,111.217633 229.370084,94.200510 223.447887,94.686713 223.314303,95.172916 213.985730,95.902221 214.408744,101.997127 215.098925,101.962398 216.034009,112.415779"/>
    <poly id="130737705" type="building.apartments" color="255,230,230" fill="1" layer="-1.00" shape="215.032133,141.935365 233.255134,140.459383 231.941564,124.310423 212.605368,125.873224 212.961591,130.249069 213.518188,137.125402 213.918938,142.039552 215.032133,141.935365"/>
    <poly id="130737706" type="building.apartments" color="255,230,230" fill="1" layer="-1.00" shape="128.180667,312.491168 131.798550,295.855659 119.219448,292.973100 115.801939,309.834346 128.180667,312.491168"/>
    <poly id="130737707" type="building.apartments" color="255,230,230" fill="1" layer="-1.00" shape="215.032133,141.935365 216.868905,163.258990 219.317934,163.050616 235.091905,161.678817 233.255134,140.459383 215.032133,141.935365"/>