<?xml version="1.0" encoding="UTF-8"?>

<!-- generated on 2025-11-17 21:13:20 by Eclipse SUMO netconvert Version 1.24.0
<netconvertConfiguration xmlns:xsi="http://www.w3.org/2001/XMLSchema-instance" xsi:noNamespaceSchemaLocation="http://sumo.dlr.de/xsd/netconvertConfiguration.xsd">

    <input>
        <type-files value="${SUMO_HOME}/data/typemap/osmNetconvert.typ.xml"/>
        <osm-files value="osm_bbox.osm.xml.gz"/>
    </input>

    <output>
        <output-file value="osm.net.xml.gz"/>
        <output.street-names value="true"/>
        <output.original-names value="true"/>
    </output>

    <projection>
        <proj value="+proj=merc +a=6378137 +b=6378137 +lat_ts=0.0 +lon_0=0.0 +x_0=0.0 +y_0=0 +k=1.0 +units=m +nadgrids=@null +wktext +no_defs"/>
    </projection>

    <processing>
        <geometry.remove value="true"/>
        <roundabouts.guess value="true"/>
    </processing>

    <tls_building>
        <tls.discard-simple value="true"/>
        <tls.join value="true"/>
        <tls.guess-signals value="true"/>
        <tls.default-type value="actuated"/>
    </tls_building>

    <ramp_guessing>
        <ramps.guess value="true"/>
    </ramp_guessing>

    <edge_removal>
        <keep-edges.by-vclass value="passenger"/>
    </edge_removal>

    <junctions>
        <junctions.join value="true"/>
        <junctions.corner-detail value="5"/>
    </junctions>

</netconvertConfiguration>
-->

<net version="1.20" junctionCornerDetail="5" limitTurnSpeed="5.50" xmlns:xsi="http://www.w3.org/2001/XMLSchema-instance" xsi:noNamespaceSchemaLocation="http://sumo.dlr.de/xsd/net_file.xsd">

    <location netOffset="-967353.41,-6468321.35" convBoundary="0.00,0.00,771.05,573.33" origBoundary="8.689535,50.127113,8.696810,50.130430" projParameter="+proj=merc +a=6378137 +b=6378137 +lat_ts=0.0 +lon_0=0.0 +x_0=0.0 +y_0=0 +k=1.0 +units=m +nadgrids=@null +wktext +no_defs"/>

    <type id="highway.primary" priority="12" numLanes="2" speed="27.78" disallow="tram rail_urban rail rail_electric rail_fast ship container cable_car subway aircraft wheelchair scooter drone" oneway="0"/>
    <type id="highway.primary_link" priority="7" numLanes="1" speed="22.22" disallow="tram rail_urban rail rail_electric rail_fast ship container cable_car subway aircraft wheelchair scooter drone" oneway="0"/>
    <type id="highway.residential" priority="3" numLanes="1" speed="13.89" disallow="tram rail_urban rail rail_electric rail_fast ship container cable_car subway aircraft wheelchair scooter drone" oneway="0"/>
    <type id="highway.tertiary" priority="10" numLanes="1" speed="22.22" disallow="tram rail_urban rail rail_electric rail_fast ship container cable_car subway aircraft wheelchair scooter drone" oneway="0"/>

    <edge id=":11951576032_0" function="internal">
        <lane id=":11951576032_0_0" index="0" disallow="tram rail_urban rail rail_electric rail_fast ship container cable_car subway aircraft wheelchair scooter drone" speed="3.65" length="4.67" shape="768.07,505.33 768.94,506.48 769.06,507.37 768.42,507.99 767.02,508.35"/>
    </edge>
    <edge id=":12207394465_0" function="internal">
        <lane id=":12207394465_0_0" index="0" disallow="tram rail_urban rail rail_electric rail_fast ship container cable_car subway aircraft wheelchair scooter drone" speed="8.87" length="15.74" shape="242.85,68.91 241.97,63.87 240.33,60.21 237.92,57.93 234.75,57.04"/>
    </edge>
    <edge id=":12207394465_1" function="internal">
        <lane id=":12207394465_1_0" index="0" disallow="tram rail_urban rail rail_electric rail_fast ship container cable_car subway aircraft wheelchair scooter drone" speed="13.89" length="23.98" shape="242.85,68.91 240.42,45.10"/>
        <lane id=":12207394465_1_1" index="1" disallow="tram rail_urban rail rail_electric rail_fast ship container cable_car subway aircraft wheelchair scooter drone" speed="13.89" length="23.98" shape="246.04,68.61 243.60,44.71"/>
    </edge>
    <edge id=":12207394465_3" function="internal">
        <lane id=":12207394465_3_0" index="0" disallow="tram rail_urban rail rail_electric rail_fast ship container cable_car subway aircraft wheelchair scooter drone" speed="3.65" length="1.44" shape="246.04,68.61 246.72,67.34"/>
    </edge>
    <edge id=":12207394465_16" function="internal">
        <lane id=":12207394465_16_0" index="0" disallow="tram rail_urban rail rail_electric rail_fast ship container cable_car subway aircraft wheelchair scooter drone" speed="3.65" length="3.23" shape="246.72,67.34 247.48,66.87 248.32,67.19 249.23,68.31"/>
    </edge>
    <edge id=":12207394465_4" function="internal">
        <lane id=":12207394465_4_0" index="0" disallow="tram rail_urban rail rail_electric rail_fast ship container cable_car subway aircraft wheelchair scooter drone" speed="5.85" length="8.89" shape="257.63,63.22 255.15,62.98 253.45,63.69 252.53,65.37 252.41,68.00"/>
    </edge>
    <edge id=":12207394465_5" function="internal">
        <lane id=":12207394465_5_0" index="0" disallow="tram rail_urban rail rail_electric rail_fast ship container cable_car subway aircraft wheelchair scooter drone" speed="11.11" length="23.74" shape="257.63,63.22 250.67,61.26 244.43,59.32 239.06,57.78 234.75,57.04"/>
    </edge>
    <edge id=":12207394465_6" function="internal">
        <lane id=":12207394465_6_0" index="0" disallow="tram rail_urban rail rail_electric rail_fast ship container cable_car subway aircraft wheelchair scooter drone" speed="11.45" length="7.44" shape="257.83,59.97 252.01,57.77 251.04,57.04"/>
    </edge>
    <edge id=":12207394465_7" function="internal">
        <lane id=":12207394465_7_0" index="0" disallow="tram rail_urban rail rail_electric rail_fast ship container cable_car subway aircraft wheelchair scooter drone" speed="3.67" length="1.59" shape="257.83,59.97 256.66,59.08 256.62,58.98"/>
    </edge>
    <edge id=":12207394465_17" function="internal">
        <lane id=":12207394465_17_0" index="0" disallow="tram rail_urban rail rail_electric rail_fast ship container cable_car subway aircraft wheelchair scooter drone" speed="11.45" length="14.97" shape="251.04,57.04 247.69,54.50 244.89,50.14 243.60,44.71"/>
    </edge>
    <edge id=":12207394465_18" function="internal">
        <lane id=":12207394465_18_0" index="0" disallow="tram rail_urban rail rail_electric rail_fast ship container cable_car subway aircraft wheelchair scooter drone" speed="3.67" length="3.17" shape="256.62,58.98 256.31,58.25 256.76,57.46 258.03,56.72"/>
    </edge>
    <edge id=":12207394465_8" function="internal">
        <lane id=":12207394465_8_0" index="0" disallow="tram rail_urban rail rail_electric rail_fast ship container cable_car subway aircraft wheelchair scooter drone" speed="9.79" length="16.17" shape="249.95,43.92 250.83,48.85 252.47,52.63 254.87,55.25 258.03,56.72"/>
    </edge>
    <edge id=":12207394465_9" function="internal">
        <lane id=":12207394465_9_0" index="0" disallow="tram rail_urban rail rail_electric rail_fast ship container cable_car subway aircraft wheelchair scooter drone" speed="13.89" length="24.16" shape="249.95,43.92 252.41,68.00"/>
        <lane id=":12207394465_9_1" index="1" disallow="tram rail_urban rail rail_electric rail_fast ship container cable_car subway aircraft wheelchair scooter drone" speed="13.89" length="24.16" shape="246.78,44.31 249.23,68.31"/>
    </edge>
    <edge id=":12207394465_11" function="internal">
        <lane id=":12207394465_11_0" index="0" disallow="tram rail_urban rail rail_electric rail_fast ship container cable_car subway aircraft wheelchair scooter drone" speed="3.65" length="1.44" shape="246.78,44.31 246.13,45.60"/>
    </edge>
    <edge id=":12207394465_19" function="internal">
        <lane id=":12207394465_19_0" index="0" disallow="tram rail_urban rail rail_electric rail_fast ship container cable_car subway aircraft wheelchair scooter drone" speed="3.65" length="3.23" shape="246.13,45.60 245.39,46.10 244.54,45.80 243.60,44.71"/>
    </edge>
    <edge id=":12207394465_12" function="internal">
        <lane id=":12207394465_12_0" index="0" disallow="tram rail_urban rail rail_electric rail_fast ship container cable_car subway aircraft wheelchair scooter drone" speed="6.21" length="9.05" shape="235.15,50.65 237.65,50.43 239.37,49.43 240.29,47.65 240.42,45.10"/>
    </edge>
    <edge id=":12207394465_13" function="internal">
        <lane id=":12207394465_13_0" index="0" disallow="tram rail_urban rail rail_electric rail_fast ship container cable_car subway aircraft wheelchair scooter drone" speed="11.11" length="23.75" shape="235.15,50.65 242.25,51.67 248.51,53.44 253.81,55.34 258.03,56.72"/>
    </edge>
    <edge id=":12207394465_14" function="internal">
        <lane id=":12207394465_14_0" index="0" disallow="tram rail_urban rail rail_electric rail_fast ship container cable_car subway aircraft wheelchair scooter drone" speed="10.52" length="7.79" shape="234.95,53.84 240.75,55.03 242.32,56.05"/>
    </edge>
    <edge id=":12207394465_15" function="internal">
        <lane id=":12207394465_15_0" index="0" disallow="tram rail_urban rail rail_electric rail_fast ship container cable_car subway aircraft wheelchair scooter drone" speed="3.65" length="1.44" shape="234.95,53.84 236.09,54.71"/>
    </edge>
    <edge id=":12207394465_20" function="internal">
        <lane id=":12207394465_20_0" index="0" disallow="tram rail_urban rail rail_electric rail_fast ship container cable_car subway aircraft wheelchair scooter drone" speed="10.52" length="14.72" shape="242.32,56.05 245.06,57.83 247.89,62.26 249.23,68.31"/>
    </edge>
    <edge id=":12207394465_21" function="internal">
        <lane id=":12207394465_21_0" index="0" disallow="tram rail_urban rail rail_electric rail_fast ship container cable_car subway aircraft wheelchair scooter drone" speed="3.65" length="3.23" shape="236.09,54.71 236.44,55.54 235.99,56.31 234.75,57.04"/>
    </edge>
    <edge id=":1439361024_0" function="internal">
        <lane id=":1439361024_0_0" index="0" disallow="tram rail_urban rail rail_electric rail_fast ship container cable_car subway aircraft wheelchair scooter drone" speed="6.99" length="11.13" width="8.00" shape="80.78,333.00 77.26,332.57 74.62,333.10 72.85,334.57 71.95,336.99"/>
    </edge>
    <edge id=":1439361024_1" function="internal">
        <lane id=":1439361024_1_0" index="0" disallow="tram rail_urban rail rail_electric rail_fast ship container cable_car subway aircraft wheelchair scooter drone" speed="8.33" length="10.93" width="8.00" shape="73.31,326.15 71.95,336.99"/>
    </edge>
    <edge id=":1439361029_0" function="internal">
        <lane id=":1439361029_0_0" index="0" disallow="tram rail_urban rail rail_electric rail_fast ship container cable_car subway aircraft wheelchair scooter drone" speed="8.33" length="7.66" shape="136.79,347.01 134.63,346.34 133.25,345.60 131.87,344.85 129.72,344.16"/>
    </edge>
    <edge id=":1439361029_1" function="internal">
        <lane id=":1439361029_1_0" index="0" disallow="tram rail_urban rail rail_electric rail_fast ship container cable_car subway aircraft wheelchair scooter drone" speed="3.19" length="3.58" width="2.45" shape="136.79,347.01 136.02,346.22 135.85,345.55 136.29,345.02 137.31,344.62"/>
    </edge>
    <edge id=":1439361029_2" function="internal">
        <lane id=":1439361029_2_0" index="0" disallow="tram rail_urban rail rail_electric rail_fast ship container cable_car subway aircraft wheelchair scooter drone" speed="7.35" length="6.35" width="2.45" shape="132.80,340.52 133.61,342.06 134.63,343.25 135.86,344.11 137.31,344.62"/>
    </edge>
    <edge id=":1439361029_3" function="internal">
        <lane id=":1439361029_3_0" index="0" disallow="tram rail_urban rail rail_electric rail_fast ship container cable_car subway aircraft wheelchair scooter drone" speed="4.90" length="6.84" shape="132.80,340.52 133.34,342.55 133.01,343.83 131.80,344.36 129.72,344.16"/>
    </edge>
    <edge id=":1463042304_0" function="internal">
        <lane id=":1463042304_0_0" index="0" disallow="tram rail_urban rail rail_electric rail_fast ship container cable_car subway aircraft wheelchair scooter drone" speed="8.33" length="8.21" shape="750.80,198.27 748.40,198.12 746.73,198.40 745.06,198.69 742.65,198.55"/>
        <lane id=":1463042304_0_1" index="1" disallow="tram rail_urban rail rail_electric rail_fast ship container cable_car subway aircraft wheelchair scooter drone" speed="8.33" length="8.21" shape="750.80,198.27 748.47,197.62 746.98,196.82 745.49,196.02 743.16,195.39"/>
    </edge>
    <edge id=":1463042761_0" function="internal">
        <lane id=":1463042761_0_0" index="0" disallow="tram rail_urban rail rail_electric rail_fast ship container cable_car subway aircraft wheelchair scooter drone" speed="8.33" length="15.76" shape="661.51,479.97 660.01,475.89 657.91,472.58 655.20,470.03 651.88,468.23"/>
    </edge>
    <edge id=":1463042761_1" function="internal">
        <lane id=":1463042761_1_0" index="0" disallow="tram rail_urban rail rail_electric rail_fast ship container cable_car subway aircraft wheelchair scooter drone" speed="7.38" length="17.34" shape="661.51,479.97 660.80,474.72 662.06,471.59 665.28,470.55 670.46,471.62"/>
    </edge>
    <edge id=":1463042761_2" function="internal">
        <lane id=":1463042761_2_0" index="0" disallow="tram rail_urban rail rail_electric rail_fast ship container cable_car subway aircraft wheelchair scooter drone" speed="3.65" length="4.67" shape="661.51,479.97 661.97,478.60 662.64,478.01 663.52,478.19 664.60,479.14"/>
    </edge>
    <edge id=":1463042761_3" function="internal">
        <lane id=":1463042761_3_0" index="0" disallow="tram rail_urban rail rail_electric rail_fast ship container cable_car subway aircraft wheelchair scooter drone" speed="5.60" length="9.33" shape="669.41,474.65 666.63,474.07 664.89,474.63 664.22,476.32 664.60,479.14"/>
    </edge>
    <edge id=":1463042761_4" function="internal">
        <lane id=":1463042761_4_0" index="0" disallow="tram rail_urban rail rail_electric rail_fast ship container cable_car subway aircraft wheelchair scooter drone" speed="8.33" length="18.67" shape="669.41,474.65 651.88,468.23"/>
    </edge>
    <edge id=":1463042761_5" function="internal">
        <lane id=":1463042761_5_0" index="0" disallow="tram rail_urban rail rail_electric rail_fast ship container cable_car subway aircraft wheelchair scooter drone" speed="3.65" length="4.67" shape="669.41,474.65 668.54,473.50 668.42,472.62 669.06,471.99 670.46,471.62"/>
    </edge>
    <edge id=":1463042761_6" function="internal">
        <lane id=":1463042761_6_0" index="0" disallow="tram rail_urban rail rail_electric rail_fast ship container cable_car subway aircraft wheelchair scooter drone" speed="8.33" length="17.24" shape="657.71,460.92 659.32,464.24 661.98,467.13 665.69,469.59 670.46,471.62"/>
    </edge>
    <edge id=":1463042761_7" function="internal">
        <lane id=":1463042761_7_0" index="0" disallow="tram rail_urban rail rail_electric rail_fast ship container cable_car subway aircraft wheelchair scooter drone" speed="8.33" length="19.47" shape="657.71,460.92 664.60,479.14"/>
    </edge>
    <edge id=":1463042761_8" function="internal">
        <lane id=":1463042761_8_0" index="0" disallow="tram rail_urban rail rail_electric rail_fast ship container cable_car subway aircraft wheelchair scooter drone" speed="6.53" length="13.77" shape="657.71,460.92 658.60,465.47 657.93,468.20 655.69,469.12 651.88,468.23"/>
    </edge>
    <edge id=":1463042761_9" function="internal">
        <lane id=":1463042761_9_0" index="0" disallow="tram rail_urban rail rail_electric rail_fast ship container cable_car subway aircraft wheelchair scooter drone" speed="8.33" length="18.54" shape="653.05,465.25 670.46,471.62"/>
    </edge>
    <edge id=":1463042761_10" function="internal">
        <lane id=":1463042761_10_0" index="0" disallow="tram rail_urban rail rail_electric rail_fast ship container cable_car subway aircraft wheelchair scooter drone" speed="8.33" length="18.76" shape="653.05,465.25 657.05,467.40 660.31,470.43 662.83,474.35 664.60,479.14"/>
    </edge>
    <edge id=":1463042761_11" function="internal">
        <lane id=":1463042761_11_0" index="0" disallow="tram rail_urban rail rail_electric rail_fast ship container cable_car subway aircraft wheelchair scooter drone" speed="3.65" length="4.67" shape="653.05,465.25 653.88,466.43 653.96,467.32 653.29,467.92 651.88,468.23"/>
    </edge>
    <edge id=":1502849346_0" function="internal">
        <lane id=":1502849346_0_0" index="0" disallow="tram rail_urban rail rail_electric rail_fast ship container cable_car subway aircraft wheelchair scooter drone" speed="7.23" length="4.62" shape="449.47,403.31 450.12,404.25 450.93,405.02 451.91,405.61 453.04,406.04"/>
    </edge>
    <edge id=":1502849346_1" function="internal">
        <lane id=":1502849346_1_0" index="0" disallow="tram rail_urban rail rail_electric rail_fast ship container cable_car subway aircraft wheelchair scooter drone" speed="13.89" length="12.58" shape="446.67,404.86 448.63,408.25 450.09,410.72 451.31,413.03 452.51,415.98"/>
    </edge>
    <edge id=":1502849350_0" function="internal">
        <lane id=":1502849350_0_0" index="0" disallow="tram rail_urban rail rail_electric rail_fast ship container cable_car subway aircraft wheelchair scooter drone" speed="13.89" length="11.01" shape="428.28,433.43 427.20,431.21 426.34,429.76 425.29,428.42 423.63,426.60"/>
        <lane id=":1502849350_0_1" index="1" disallow="tram rail_urban rail rail_electric rail_fast ship container cable_car subway aircraft wheelchair scooter drone" speed="13.89" length="11.01" shape="428.28,433.43 427.52,430.73 427.56,428.64 427.39,426.69 425.99,424.43"/>
        <lane id=":1502849350_0_2" index="2" disallow="tram rail_urban rail rail_electric rail_fast ship container cable_car subway aircraft wheelchair scooter drone" speed="13.89" length="11.01" shape="428.28,433.43 427.91,430.36 428.92,427.69 429.62,425.11 428.34,422.26"/>
        <lane id=":1502849350_0_3" index="3" disallow="tram rail_urban rail rail_electric rail_fast ship container cable_car subway aircraft wheelchair scooter drone" speed="13.89" length="11.01" shape="428.28,433.43 428.39,430.14 430.40,426.94 431.95,423.65 430.69,420.10"/>
    </edge>
    <edge id=":1516827662_0" function="internal">
        <lane id=":1516827662_0_0" index="0" disallow="tram rail_urban rail rail_electric rail_fast ship container cable_car subway aircraft wheelchair scooter drone" speed="13.89" length="7.77" shape="547.63,216.10 541.52,220.75"/>
        <lane id=":1516827662_0_1" index="1" disallow="tram rail_urban rail rail_electric rail_fast ship container cable_car subway aircraft wheelchair scooter drone" speed="13.89" length="7.77" shape="545.66,213.58 539.48,218.28"/>
        <lane id=":1516827662_0_2" index="2" disallow="tram rail_urban rail rail_electric rail_fast ship container cable_car subway aircraft wheelchair scooter drone" speed="13.89" length="7.77" shape="543.69,211.06 537.44,215.82"/>
    </edge>
    <edge id=":1516827662_3" function="internal">
        <lane id=":1516827662_3_0" index="0" disallow="pedestrian tram rail_urban rail rail_electric rail_fast ship container cable_car subway aircraft wheelchair scooter drone" speed="9.40" length="8.76" shape="540.02,208.67 540.05,210.51 540.05,213.61 539.89,216.65 539.48,218.28"/>
        <lane id=":1516827662_3_1" index="1" disallow="pedestrian tram rail_urban rail rail_electric rail_fast ship container cable_car subway aircraft wheelchair scooter drone" speed="8.52" length="8.76" shape="540.02,208.67 539.89,210.97 539.42,212.93 538.60,214.54 537.44,215.82"/>
    </edge>
    <edge id=":1516828006_0" function="internal">
        <lane id=":1516828006_0_0" index="0" disallow="tram rail_urban rail rail_electric rail_fast ship container cable_car subway aircraft wheelchair scooter drone" speed="6.25" length="8.73" shape="214.36,384.81 215.92,386.74 217.66,387.71 219.59,387.71 221.70,386.74"/>
    </edge>
    <edge id=":1516828006_1" function="internal">
        <lane id=":1516828006_1_0" index="0" disallow="tram rail_urban rail rail_electric rail_fast ship container cable_car subway aircraft wheelchair scooter drone" speed="3.19" length="3.58" width="2.45" shape="214.36,384.81 214.31,385.91 213.95,386.49 213.26,386.55 212.26,386.08"/>
    </edge>
    <edge id=":1516828006_2" function="internal">
        <lane id=":1516828006_2_0" index="0" disallow="tram rail_urban rail rail_electric rail_fast ship container cable_car subway aircraft wheelchair scooter drone" speed="6.41" length="8.79" width="2.45" shape="210.70,393.61 212.49,392.14 213.35,390.39 213.27,388.37 212.26,386.08"/>
    </edge>
    <edge id=":1516828006_3" function="internal">
        <lane id=":1516828006_3_0" index="0" disallow="tram rail_urban rail rail_electric rail_fast ship container cable_car subway aircraft wheelchair scooter drone" speed="13.89" length="13.11" shape="210.70,393.61 221.70,386.74"/>
        <lane id=":1516828006_3_1" index="1" disallow="tram rail_urban rail rail_electric rail_fast ship container cable_car subway aircraft wheelchair scooter drone" speed="13.89" length="13.11" shape="212.33,396.36 223.46,389.42"/>
        <lane id=":1516828006_3_2" index="2" disallow="tram rail_urban rail rail_electric rail_fast ship container cable_car subway aircraft wheelchair scooter drone" speed="13.89" length="13.11" shape="213.97,399.11 225.21,392.09"/>
    </edge>
    <edge id=":18358390_0" function="internal">
        <lane id=":18358390_0_0" index="0" disallow="tram rail_urban rail rail_electric rail_fast ship container cable_car subway aircraft wheelchair scooter drone" speed="3.65" length="4.67" shape="38.14,14.09 37.15,13.04 36.94,12.17 37.51,11.48 38.86,10.97"/>
    </edge>
    <edge id=":18358390_1" function="internal">
        <lane id=":18358390_1_0" index="0" disallow="tram rail_urban rail rail_electric rail_fast ship container cable_car subway aircraft wheelchair scooter drone" speed="5.97" length="7.26" shape="34.01,6.58 34.08,8.03 34.91,9.25 36.51,10.23 38.86,10.97"/>
    </edge>
    <edge id=":18358390_2" function="internal">
        <lane id=":18358390_2_0" index="0" disallow="tram rail_urban rail rail_electric rail_fast ship container cable_car subway aircraft wheelchair scooter drone" speed="7.22" length="11.58" shape="31.67,18.26 32.76,14.60 34.33,12.17 36.36,10.96 38.86,10.97"/>
    </edge>
    <edge id=":18358391_0" function="internal">
        <lane id=":18358391_0_0" index="0" disallow="tram rail_urban rail rail_electric rail_fast ship container cable_car subway aircraft wheelchair scooter drone" speed="13.89" length="11.02" shape="471.10,122.41 468.72,120.58 466.85,119.54 464.77,118.85 461.75,118.06"/>
        <lane id=":18358391_0_1" index="1" disallow="tram rail_urban rail rail_electric rail_fast ship container cable_car subway aircraft wheelchair scooter drone" speed="13.89" length="11.02" shape="471.10,122.41 468.91,120.11 467.44,118.04 465.67,116.29 462.57,114.97"/>
    </edge>
    <edge id=":18358391_2" function="internal">
        <lane id=":18358391_2_0" index="0" disallow="tram rail_urban rail rail_electric rail_fast ship container cable_car subway aircraft wheelchair scooter drone" speed="13.89" length="8.13" shape="463.38,111.87 465.66,112.31 467.27,112.32 468.89,112.25 471.22,112.41"/>
        <lane id=":18358391_2_1" index="1" disallow="tram rail_urban rail rail_electric rail_fast ship container cable_car subway aircraft wheelchair scooter drone" speed="13.89" length="8.13" shape="463.38,111.87 465.65,112.82 467.05,113.91 468.46,114.92 470.79,115.58"/>
    </edge>
    <edge id=":18358391_4" function="internal">
        <lane id=":18358391_4_0" index="0" disallow="tram rail_urban rail rail_electric rail_fast ship container cable_car subway aircraft wheelchair scooter drone" speed="3.65" length="1.44" shape="463.38,111.87 464.34,112.95"/>
    </edge>
    <edge id=":18358391_5" function="internal">
        <lane id=":18358391_5_0" index="0" disallow="tram rail_urban rail rail_electric rail_fast ship container cable_car subway aircraft wheelchair scooter drone" speed="3.65" length="3.23" shape="464.34,112.95 464.52,113.83 463.93,114.50 462.57,114.97"/>
    </edge>
    <edge id=":20640328_0" function="internal">
        <lane id=":20640328_0_0" index="0" disallow="tram rail_urban rail rail_electric rail_fast ship container cable_car subway aircraft wheelchair scooter drone" speed="13.89" length="6.91" shape="257.85,211.27 257.82,209.24 257.19,207.90 256.39,206.55 255.86,204.50"/>
        <lane id=":20640328_0_1" index="1" disallow="tram rail_urban rail rail_electric rail_fast ship container cable_car subway aircraft wheelchair scooter drone" speed="13.89" length="6.91" shape="261.25,210.25 261.16,208.41 260.45,207.23 259.59,206.04 259.04,204.19"/>
    </edge>
    <edge id=":20640328_2" function="internal">
        <lane id=":20640328_2_0" index="0" disallow="tram rail_urban rail rail_electric rail_fast ship container cable_car subway aircraft wheelchair scooter drone" speed="5.02" length="7.45" shape="261.25,210.25 258.43,208.50 257.44,206.69 258.31,204.81"/>
    </edge>
    <edge id=":20640328_10" function="internal">
        <lane id=":20640328_10_0" index="0" disallow="tram rail_urban rail rail_electric rail_fast ship container cable_car subway aircraft wheelchair scooter drone" speed="5.02" length="3.32" shape="258.31,204.81 261.01,202.88"/>
    </edge>
    <edge id=":20640328_3" function="internal">
        <lane id=":20640328_3_0" index="0" disallow="tram rail_urban rail rail_electric rail_fast ship container cable_car subway aircraft wheelchair scooter drone" speed="13.89" length="1.83" shape="265.41,203.57 267.30,204.06"/>
        <lane id=":20640328_3_1" index="1" disallow="tram rail_urban rail rail_electric rail_fast ship container cable_car subway aircraft wheelchair scooter drone" speed="13.89" length="1.83" shape="262.23,203.88 264.16,203.47"/>
        <lane id=":20640328_3_2" index="2" disallow="tram rail_urban rail rail_electric rail_fast ship container cable_car subway aircraft wheelchair scooter drone" speed="13.89" length="1.83" shape="262.23,203.88 261.01,202.88"/>
    </edge>
    <edge id=":20640328_6" function="internal">
        <lane id=":20640328_6_0" index="0" disallow="tram rail_urban rail rail_electric rail_fast ship container cable_car subway aircraft wheelchair scooter drone" speed="3.65" length="1.26" shape="262.23,203.88 261.63,204.99"/>
    </edge>
    <edge id=":20640328_11" function="internal">
        <lane id=":20640328_11_0" index="0" disallow="tram rail_urban rail rail_electric rail_fast ship container cable_car subway aircraft wheelchair scooter drone" speed="3.65" length="3.41" shape="261.63,204.99 261.55,205.15 260.79,205.63 259.95,205.31 259.04,204.19"/>
    </edge>
    <edge id=":20640328_7" function="internal">
        <lane id=":20640328_7_0" index="0" disallow="tram rail_urban rail rail_electric rail_fast ship container cable_car subway aircraft wheelchair scooter drone" speed="7.03" length="6.06" shape="253.37,209.74 254.57,208.59 255.38,207.34 255.81,205.97 255.86,204.50"/>
    </edge>
    <edge id=":20640328_8" function="internal">
        <lane id=":20640328_8_0" index="0" disallow="tram rail_urban rail rail_electric rail_fast ship container cable_car subway aircraft wheelchair scooter drone" speed="6.16" length="13.18" shape="253.37,209.74 258.27,206.03 261.70,203.74 263.66,202.89 264.16,203.47"/>
        <lane id=":20640328_8_1" index="1" disallow="tram rail_urban rail rail_electric rail_fast ship container cable_car subway aircraft wheelchair scooter drone" speed="5.53" length="10.31" shape="253.37,209.74 256.64,207.11 259.01,205.10 260.46,203.68 261.01,202.88"/>
    </edge>
    <edge id=":2307560460_0" function="internal">
        <lane id=":2307560460_0_0" index="0" disallow="tram rail_urban rail rail_electric rail_fast ship container cable_car subway aircraft wheelchair scooter drone" speed="12.85" length="11.10" shape="389.84,388.97 387.46,386.87 385.28,386.13 382.84,385.94 379.69,385.52"/>
    </edge>
    <edge id=":2307560460_1" function="internal">
        <lane id=":2307560460_1_0" index="0" disallow="tram rail_urban rail rail_electric rail_fast ship container cable_car subway aircraft wheelchair scooter drone" speed="13.89" length="11.44" shape="389.84,388.97 387.60,386.68 385.82,385.36 383.97,384.12 381.47,382.08"/>
        <lane id=":2307560460_1_1" index="1" disallow="tram rail_urban rail rail_electric rail_fast ship container cable_car subway aircraft wheelchair scooter drone" speed="13.89" length="11.44" shape="392.26,386.87 389.94,384.50 388.12,383.12 386.20,381.83 383.62,379.72"/>
        <lane id=":2307560460_1_2" index="2" disallow="tram rail_urban rail rail_electric rail_fast ship container cable_car subway aircraft wheelchair scooter drone" speed="13.89" length="11.44" shape="394.67,384.78 392.28,382.32 390.41,380.89 388.44,379.54 385.78,377.35"/>
        <lane id=":2307560460_1_3" index="3" disallow="tram rail_urban rail rail_electric rail_fast ship container cable_car subway aircraft wheelchair scooter drone" speed="13.89" length="11.44" shape="397.09,382.68 394.63,380.14 392.70,378.65 390.68,377.25 387.93,374.98"/>
    </edge>
    <edge id=":30092060_0" function="internal">
        <lane id=":30092060_0_0" index="0" disallow="tram rail_urban rail rail_electric rail_fast ship container cable_car subway aircraft wheelchair scooter drone" speed="6.17" length="9.05" shape="396.79,330.62 394.96,332.38 394.24,334.23 394.65,336.17 396.18,338.20"/>
    </edge>
    <edge id=":30092060_1" function="internal">
        <lane id=":30092060_1_0" index="0" disallow="tram rail_urban rail rail_electric rail_fast ship container cable_car subway aircraft wheelchair scooter drone" speed="13.89" length="16.24" shape="394.93,328.01 391.17,331.01 388.84,333.36 386.50,335.70 382.74,338.70"/>